<?xml version="1.0" encoding="UTF-8"?>
<routes>
  <vType accel="3.0" decel="6.0" id="CarA" length="5.0" minGap="2.5" maxSpeed="20.0" sigma="0.5" guiShape="truck" />
  <vType accel="2.0" decel="6.0" id="CarB" length="7.5" minGap="2.5" maxSpeed="15.0" sigma="0.5" guiShape="bus"/>
  <vType accel="1.0" decel="5.0" id="CarC" length="5.0" minGap="2.5" maxSpeed="15.0" sigma="0.5" imgFile="car.png" />
  <vType accel="1.0" decel="5.0" id="self" length="5.0" minGap="2.5" maxSpeed="15.0" sigma="0.5" />

  <route id="route01" edges="L10 L02"/>
  <route id="route02" edges="L20 L01"/>
  <route id="route03" edges="L10 L04"/>
  <route id="route04" edges="L10 L03"/>
  <route id="route05" edges="L30 L01"/>
  <route id="route06" edges="L10"/>

  <vehicle depart="54000" id="veh1_1" route="route01" type="CarA" color="1,0,0" departPos="0"/>
  <vehicle depart="54000" id="veh1_2" route="route01" type="CarB" color="1,0,0" departPos="100"/>
  <vehicle depart="54000" id="veh1_3" route="route01" type="CarC" color="1,0,0" departPos="300"/>
  <vehicle depart="54000" id="veh1_4" route="route01" type="CarA" color="1,0,0" departPos="300"/>

  <vehicle depart="54000" departSpeed="0" id="veh2_1" route="route02" type="CarA" color="1,0,0" departPos="100"/>
  <vehicle depart="54000" departSpeed="0" id="veh2_2" route="route02" type="CarC" color="1,0,0" departPos="300"/>
  <vehicle depart="54000" departSpeed="0" id="veh2_3" route="route02" type="CarC" color="1,0,0" departPos="400"/>
  <vehicle depart="54000" departSpeed="0" id="veh2_4" route="route02" type="CarC" color="1,0,0" departPos="250"/>
  <vehicle depart="54000" departSpeed="0" id="veh2_5" route="route02" type="CarC" color="1,0,0" departPos="0"/>

  <vehicle depart="54000" departSpeed="0" id="veh3_1" route="route03" type="CarC" color="1,0,0" departPos="100"/>
  <vehicle depart="54000" departSpeed="0" id="veh3_2" route="route03" type="CarC" color="1,0,0" departPos="300"/>
  <vehicle depart="54000" departSpeed="0" id="veh3_3" route="route03" type="CarC" color="1,0,0" departPos="400"/>
  <vehicle depart="54000" departSpeed="0" id="veh3_4" route="route03" type="CarC" color="1,0,0" departPos="200"/>
  <vehicle depart="54000" departSpeed="0" id="veh3_5" route="route03" type="CarC" color="1,0,0" departPos="310"/>

  <vehicle depart="54000" departSpeed="0" id="veh4_1" route="route04" type="CarC" color="1,0,0" departPos="100"/>
  <vehicle depart="54000" departSpeed="0" id="veh4_2" route="route04" type="CarC" color="1,0,0" departPos="300"/>
  <vehicle depart="54000" departSpeed="0" id="veh4_3" route="route04" type="CarC" color="1,0,0" departPos="400"/>
  <vehicle depart="54000" departSpeed="0" id="veh4_4" route="route04" type="CarC" color="1,0,0" departPos="150"/>
  <vehicle depart="54000" departSpeed="0" id="veh4_5" route="route04" type="CarC" color="1,0,0" departPos="200"/>
</routes>
