<?xml version="1.0" encoding="UTF-8"?>
<routes>
  <vType accel="3.0" decel="6.0" id="CarA" length="5.0" minGap="2.5" maxSpeed="20.0" sigma="0.5" guiShape="evehicle" />
  <vType accel="2.0" decel="6.0" id="CarB" length="7.5" minGap="2.5" maxSpeed="15.0" sigma="0.5" guiShape="evehicle" />
  <vType accel="1.0" decel="5.0" id="CarC" length="5.0" minGap="2.5" maxSpeed="15.0" sigma="0.5" guiShape="evehicle"  />

  <route id="route01" edges="L1 L6"/>
  <route id="route02" edges="L7 L2"/>
  <route id="route03" edges="L4 L2"/>
 <route id = "route04" edges = "L2" />

  <vehicle depart="54000" id="veh1" route="route01" type="CarA" color="1,0,0" departPos="450" departSpeed = "5"/> 
  <vehicle depart="54000" departSpeed="15" id="veh2" route="route03" type="CarC" color="1,0,0" departPos="430"/>
  <vehicle depart="54000" departSpeed="7" id="veh3" route="route04" type="CarC" color="1,0,0" departPos="20"/>
</routes>
