<?xml version="1.0" encoding="UTF-8"?>
<types>
   <type id="a" priority="1" numLanes="2" speed="20" width="5"/>
</types>
