<?xml version="1.0" encoding="UTF-8"?>

<!-- generated on 2018年05月15日 星期二 15时55分10秒 by Netedit Version 0.32.0
<?xml version="1.0" encoding="UTF-8"?>

<configuration xmlns:xsi="http://www.w3.org/2001/XMLSchema-instance" xsi:noNamespaceSchemaLocation="http://sumo.dlr.de/xsd/netconvertConfiguration.xsd">

    <input>
        <sumo-net-file value="/home/zy/workspace/speed-profile/src/simulation/data/junction.net.xml"/>
    </input>

    <output>
        <output-file value="/home/zy/workspace/speed-profile/src/simulation/data/junction.net.xml"/>
    </output>

    <processing>
        <no-turnarounds value="true"/>
        <offset.disable-normalization value="true"/>
        <lefthand value="false"/>
        <junctions.corner-detail value="0"/>
        <rectangular-lane-cut value="false"/>
        <walkingareas value="false"/>
    </processing>

</configuration>
-->

<net version="0.27" xmlns:xsi="http://www.w3.org/2001/XMLSchema-instance" xsi:noNamespaceSchemaLocation="http://sumo.dlr.de/xsd/net_file.xsd">

    <location netOffset="0.00,0.00" convBoundary="-500.00,0.00,500.00,288.00" origBoundary="0.00,0.00,1000.00,1000.00" projParameter="!"/>

    <edge id=":J0_0" function="internal">
        <lane id=":J0_0_0" index="0" speed="13.89" length="3.79" width="5.00" shape="1.39,3.15 0.33,2.81 -0.43,2.63 -1.20,2.56 -2.32,2.55"/>
    </edge>
    <edge id=":J0_1" function="internal">
        <lane id=":J0_1_0" index="0" speed="13.89" length="19.48" width="5.00" shape="1.39,3.15 -4.90,0.66 -6.68,-1.12 -3.95,-2.19 3.29,-2.55"/>
    </edge>
    <edge id=":J0_2" function="internal">
        <lane id=":J0_2_0" index="0" speed="13.89" length="3.91" width="5.00" shape="1.59,2.55 -2.32,2.55"/>
    </edge>
    <edge id=":J0_3" function="internal">
        <lane id=":J0_3_0" index="0" speed="13.89" length="5.61" width="5.00" shape="-2.32,-2.55 3.29,-2.55"/>
    </edge>
    <edge id=":J0_4" function="internal">
        <lane id=":J0_4_0" index="0" speed="13.89" length="5.44" width="5.00" shape="-2.32,-2.55 -0.71,-2.53 0.40,-2.44 1.47,-2.18 3.01,-1.69"/>
    </edge>
    <edge id=":J2-1_0" function="internal">
        <lane id=":J2-1_0_0" index="0" speed="13.89" length="0.10" width="5.00" shape="21.22,2.55 21.22,2.55"/>
    </edge>
    <edge id=":J2-1_1" function="internal">
        <lane id=":J2-1_1_0" index="0" speed="13.89" length="0.10" width="5.00" shape="21.22,-2.55 21.22,-2.55"/>
    </edge>
    <edge id=":J3-1_0" function="internal">
        <lane id=":J3-1_0_0" index="0" speed="13.89" length="0.13" width="5.00" shape="29.08,12.38 29.19,12.42"/>
    </edge>
    <edge id=":J3-1_1" function="internal">
        <lane id=":J3-1_1_0" index="0" speed="13.89" length="0.13" width="5.00" shape="30.81,7.58 30.92,7.62"/>
    </edge>
    <edge id=":J3-2_0" function="internal">
        <lane id=":J3-2_0_0" index="0" speed="13.89" length="0.28" width="5.00" shape="68.61,27.78 68.53,27.74 68.48,27.72 68.43,27.69 68.35,27.66"/>
    </edge>
    <edge id=":J3-2_1" function="internal">
        <lane id=":J3-2_1_0" index="0" speed="13.89" length="0.86" width="5.00" shape="70.20,22.91 70.44,23.00 70.60,23.07 70.76,23.15 70.98,23.27"/>
    </edge>
    <edge id=":J3-3_0" function="internal">
        <lane id=":J3-3_0_0" index="0" speed="13.89" length="0.18" width="5.00" shape="116.30,52.90 116.14,52.81"/>
    </edge>
    <edge id=":J3-3_1" function="internal">
        <lane id=":J3-3_1_0" index="0" speed="13.89" length="0.54" width="5.00" shape="118.52,48.30 118.99,48.57"/>
    </edge>

    <edge id="L01" from="J0" to="J1" priority="1">
        <lane id="L01_0" index="0" speed="13.89" length="497.68" width="5.00" shape="-2.32,2.55 -500.00,2.55"/>
    </edge>
    <edge id="L0_21" from="J0" to="J2-1" priority="1" type="a" shape="0.00,0.00 21.22,0.00">
        <lane id="L0_21_0" index="0" speed="13.89" length="17.93" width="5.00" shape="3.29,-2.55 21.22,-2.55"/>
    </edge>
    <edge id="L0_31" from="J0" to="J3-1" priority="1" type="a">
        <lane id="L0_31_0" index="0" speed="13.89" length="29.30" width="5.00" shape="3.01,-1.69 30.81,7.58"/>
    </edge>
    <edge id="L10" from="J1" to="J0" priority="1" type="a">
        <lane id="L10_0" index="0" speed="13.89" length="497.68" width="5.00" shape="-500.00,-2.55 -2.32,-2.55"/>
    </edge>
    <edge id="L21_0" from="J2-1" to="J0" priority="1" shape="21.22,0.00 0.00,0.00">
        <lane id="L21_0_0" index="0" speed="13.89" length="19.63" width="5.00" shape="21.22,2.55 1.59,2.55"/>
    </edge>
    <edge id="L21_2" from="J2-1" to="J2" priority="1" type="a" shape="21.22,0.00 500.00,0.00">
        <lane id="L21_2_0" index="0" speed="13.89" length="478.78" width="5.00" shape="21.22,-2.55 500.00,-2.55"/>
    </edge>
    <edge id="L2_21" from="J2" to="J2-1" priority="1" shape="500.00,0.00 21.22,0.00">
        <lane id="L2_21_0" index="0" speed="13.89" length="478.78" width="5.00" shape="500.00,2.55 21.22,2.55"/>
    </edge>
    <edge id="L31_0" from="J3-1" to="J0" priority="1" type="a">
        <lane id="L31_0_0" index="0" speed="13.89" length="29.30" width="5.00" shape="29.19,12.42 1.39,3.15"/>
    </edge>
    <edge id="L31_32" from="J3-1" to="J3-2" priority="1" type="a">
        <lane id="L31_32_0" index="0" speed="13.89" length="42.14" width="5.00" shape="30.92,7.62 70.20,22.91"/>
    </edge>
    <edge id="L32_31" from="J3-2" to="J3-1" priority="1">
        <lane id="L32_31_0" index="0" speed="13.89" length="42.14" width="5.00" shape="68.35,27.66 29.08,12.38"/>
    </edge>
    <edge id="L32_33" from="J3-2" to="J3-3" priority="1">
        <lane id="L32_33_0" index="0" speed="13.89" length="53.73" width="5.00" shape="70.98,23.27 118.52,48.30"/>
    </edge>
    <edge id="L33_3" from="J3-3" to="J3" priority="1">
        <lane id="L33_3_0" index="0" speed="13.89" length="449.99" width="5.00" shape="118.99,48.57 501.34,285.83"/>
    </edge>
    <edge id="L33_32" from="J3-3" to="J3-2" priority="1">
        <lane id="L33_32_0" index="0" speed="13.89" length="53.73" width="5.00" shape="116.14,52.81 68.61,27.78"/>
    </edge>
    <edge id="L3_33" from="J3" to="J3-3" priority="1">
        <lane id="L3_33_0" index="0" speed="13.89" length="449.99" width="5.00" shape="498.66,290.17 116.30,52.90"/>
    </edge>

    <junction id="J0" type="priority" x="0.00" y="0.00" incLanes="L31_0_0 L21_0_0 L10_0" intLanes=":J0_0_0 :J0_1_0 :J0_2_0 :J0_3_0 :J0_4_0" shape="0.60,5.52 3.80,-4.06 -2.32,-5.05 -2.32,5.05">
        <request index="0" response="00100" foes="00100" cont="0"/>
        <request index="1" response="11100" foes="11100" cont="0"/>
        <request index="2" response="00000" foes="10011" cont="0"/>
        <request index="3" response="00000" foes="00010" cont="0"/>
        <request index="4" response="00100" foes="00110" cont="0"/>
    </junction>
    <junction id="J1" type="dead_end" x="-500.00" y="0.00" incLanes="L01_0" intLanes="" shape="-500.00,-0.05 -500.00,5.05 -500.00,0.05"/>
    <junction id="J2" type="dead_end" x="500.00" y="0.00" incLanes="L21_2_0" intLanes="" shape="500.00,0.05 500.00,-5.05 500.00,-0.05"/>
    <junction id="J2-1" type="priority" x="21.22" y="0.00" incLanes="L2_21_0 L0_21_0" intLanes=":J2-1_0_0 :J2-1_1_0" shape="21.22,5.05 21.22,-5.05 21.22,5.05">
        <request index="0" response="00" foes="00" cont="0"/>
        <request index="1" response="00" foes="00" cont="0"/>
    </junction>
    <junction id="J3" type="dead_end" x="500.00" y="288.00" incLanes="L33_3_0" intLanes="" shape="499.97,288.04 502.66,283.71 500.03,287.96"/>
    <junction id="J3-1" type="priority" x="30.00" y="10.00" incLanes="L32_31_0 L0_31_0" intLanes=":J3-1_0_0 :J3-1_1_0" shape="28.25,14.74 31.91,5.33 31.51,5.18 28.32,14.76">
        <request index="0" response="00" foes="00" cont="0"/>
        <request index="1" response="00" foes="00" cont="0"/>
    </junction>
    <junction id="J3-2" type="priority" x="69.54" y="25.39" incLanes="L33_32_0 L31_32_0" intLanes=":J3-2_0_0 :J3-2_1_0" shape="67.44,29.99 72.15,21.06 71.10,20.58">
        <request index="0" response="00" foes="00" cont="0"/>
        <request index="1" response="00" foes="00" cont="0"/>
    </junction>
    <junction id="J3-3" type="priority" x="117.49" y="50.64" incLanes="L3_33_0 L32_33_0" intLanes=":J3-3_0_0 :J3-3_1_0" shape="114.98,55.03 120.30,46.44 119.68,46.09">
        <request index="0" response="00" foes="00" cont="0"/>
        <request index="1" response="00" foes="00" cont="0"/>
    </junction>

    <connection from="L0_21" to="L21_2" fromLane="0" toLane="0" via=":J2-1_1_0" dir="s" state="M"/>
    <connection from="L0_31" to="L31_32" fromLane="0" toLane="0" via=":J3-1_1_0" dir="s" state="M"/>
    <connection from="L10" to="L0_21" fromLane="0" toLane="0" via=":J0_3_0" dir="s" state="M"/>
    <connection from="L10" to="L0_31" fromLane="0" toLane="0" via=":J0_4_0" dir="s" state="m"/>
    <connection from="L21_0" to="L01" fromLane="0" toLane="0" via=":J0_2_0" dir="s" state="M"/>
    <connection from="L2_21" to="L21_0" fromLane="0" toLane="0" via=":J2-1_0_0" dir="s" state="M"/>
    <connection from="L31_0" to="L01" fromLane="0" toLane="0" via=":J0_0_0" dir="s" state="m"/>
    <connection from="L31_0" to="L0_21" fromLane="0" toLane="0" via=":J0_1_0" dir="l" state="m"/>
    <connection from="L31_32" to="L32_33" fromLane="0" toLane="0" via=":J3-2_1_0" dir="s" state="M"/>
    <connection from="L32_31" to="L31_0" fromLane="0" toLane="0" via=":J3-1_0_0" dir="s" state="M"/>
    <connection from="L32_33" to="L33_3" fromLane="0" toLane="0" via=":J3-3_1_0" dir="s" state="M"/>
    <connection from="L33_32" to="L32_31" fromLane="0" toLane="0" via=":J3-2_0_0" dir="s" state="M"/>
    <connection from="L3_33" to="L33_32" fromLane="0" toLane="0" via=":J3-3_0_0" dir="s" state="M"/>

    <connection from=":J0_0" to="L01" fromLane="0" toLane="0" dir="s" state="M"/>
    <connection from=":J0_1" to="L0_21" fromLane="0" toLane="0" dir="l" state="M"/>
    <connection from=":J0_2" to="L01" fromLane="0" toLane="0" dir="s" state="M"/>
    <connection from=":J0_3" to="L0_21" fromLane="0" toLane="0" dir="s" state="M"/>
    <connection from=":J0_4" to="L0_31" fromLane="0" toLane="0" dir="s" state="M"/>
    <connection from=":J2-1_0" to="L21_0" fromLane="0" toLane="0" dir="s" state="M"/>
    <connection from=":J2-1_1" to="L21_2" fromLane="0" toLane="0" dir="s" state="M"/>
    <connection from=":J3-1_0" to="L31_0" fromLane="0" toLane="0" dir="s" state="M"/>
    <connection from=":J3-1_1" to="L31_32" fromLane="0" toLane="0" dir="s" state="M"/>
    <connection from=":J3-2_0" to="L32_31" fromLane="0" toLane="0" dir="s" state="M"/>
    <connection from=":J3-2_1" to="L32_33" fromLane="0" toLane="0" dir="s" state="M"/>
    <connection from=":J3-3_0" to="L33_32" fromLane="0" toLane="0" dir="s" state="M"/>
    <connection from=":J3-3_1" to="L33_3" fromLane="0" toLane="0" dir="s" state="M"/>

</net>
