<?xml version="1.0" encoding="UTF-8"?>
<edges xmlns:xsi="http://www.w3.org/2001/XMLSchema-instance" xsi:noNamespaceSchemaLocation="http://sumo.dlr.de/xsd/edges_file.xsd">
    <edge id="L1" from="1" to="5" type="a"/>
    <edge id="L2" from="5" to="1" type="a"/>
    <edge id="L3" from="5" to="3" type="a"/>
    <edge id="L4" from="3" to="5" type="a"/>
    <edge id="L5" from="2" to="5" type="a"/>
    <edge id="L6" from="5" to="2" type="a"/>
    <edge id="L7" from="4" to="5" type="a"/>
    <edge id="L8" from="5" to="4" type="a"/>
</edges>
