<?xml version="1.0" encoding="UTF-8"?>
<routes>
  <vType accel="3.0" decel="6.0" id="CarA" length="5.0" minGap="2.5" maxSpeed="20.0" sigma="0.5" />
  <vType accel="2.0" decel="6.0" id="CarB" length="7.5" minGap="2.5" maxSpeed="15.0" sigma="0.5" />
  <vType accel="1.0" decel="5.0" id="CarC" length="5.0" minGap="2.5" maxSpeed="10.0" sigma="0.5" />

  <route id="route01" edges="L1 L3"/>
  <route id="route02" edges="L4 L2"/>
  <route id="route03" edges="L7 L2"/>

  <vehicle depart="54000" id="veh0" route="route01" type="CarA" color="1,0,0" /> 
  <vehicle depart="54000" id="veh5" route="route02" type="CarA" color="1,0,0" /> 
  <vehicle depart="54100" id="veh1" route="route02" type="CarB" color="1,0,0" /> 
  <vehicle depart="54200" id="veh2" route="route03" type="CarC" color="1,0,0" /> 
  <vehicle depart="54300" id="veh3" route="route01" type="CarA" color="1,0,0" /> 
</routes>
