<?xml version="1.0" encoding="UTF-8"?>
<types>
   <type id="a" priority="1" numLanes="1" speed="13.889" width="5"/>
</types>
