<?xml version="1.0" encoding="UTF-8"?>

<!-- generated on 2017年09月13日 星期三 14时57分13秒 by Netedit Version 0.30.0
<?xml version="1.0" encoding="UTF-8"?>

<configuration xmlns:xsi="http://www.w3.org/2001/XMLSchema-instance" xsi:noNamespaceSchemaLocation="http://sumo.dlr.de/xsd/netconvertConfiguration.xsd">

    <output>
        <output-file value="/home/robot/workspace/catkin_ws/planning/data/cycle8.net.xml"/>
    </output>

    <processing>
        <no-turnarounds value="true"/>
        <offset.disable-normalization value="true"/>
    </processing>

</configuration>
-->

<net version="0.27" xmlns:xsi="http://www.w3.org/2001/XMLSchema-instance" xsi:noNamespaceSchemaLocation="http://sumo.dlr.de/xsd/net_file.xsd">

    <location netOffset="0.00,0.00" convBoundary="-100.00,-100.00,100.00,100.00" origBoundary="10000000000.00,10000000000.00,-10000000000.00,-10000000000.00" projParameter="!"/>

    <edge id=":gneJ11_0" function="internal">
        <lane id=":gneJ11_0_0" index="0" speed="13.89" length="0.42" shape="49.99,1.70 49.87,1.67 49.78,1.66 49.70,1.65 49.57,1.65"/>
    </edge>
    <edge id=":gneJ11_1" function="internal">
        <lane id=":gneJ11_1_0" index="0" speed="13.89" length="1.29" shape="49.57,-1.65 49.95,-1.65 50.21,-1.63 50.47,-1.58 50.84,-1.48"/>
    </edge>
    <edge id=":gneJ12_0" function="internal">
        <lane id=":gneJ12_0_0" index="0" speed="13.89" length="2.59" shape="101.37,48.73 101.55,49.47 101.61,50.00 101.55,50.53 101.37,51.27"/>
    </edge>
    <edge id=":gneJ12_1" function="internal">
        <lane id=":gneJ12_1_0" index="0" speed="13.89" length="0.85" shape="98.18,50.41 98.24,50.17 98.26,50.00 98.24,49.83 98.18,49.59"/>
    </edge>
    <edge id=":gneJ14_0" function="internal">
        <lane id=":gneJ14_0_0" index="0" speed="13.89" length="0.85" shape="74.45,8.48 74.27,8.31 74.13,8.21 73.97,8.14 73.73,8.07"/>
    </edge>
    <edge id=":gneJ14_1" function="internal">
        <lane id=":gneJ14_1_0" index="0" speed="13.89" length="2.59" shape="74.59,4.88 75.32,5.09 75.81,5.30 76.23,5.62 76.78,6.15"/>
    </edge>
    <edge id=":gneJ15_0" function="internal">
        <lane id=":gneJ15_0_0" index="0" speed="13.89" length="2.59" shape="51.27,101.37 50.53,101.55 50.00,101.61 49.47,101.55 48.73,101.37"/>
    </edge>
    <edge id=":gneJ15_1" function="internal">
        <lane id=":gneJ15_1_0" index="0" speed="13.89" length="0.85" shape="49.59,98.18 49.83,98.24 50.00,98.26 50.17,98.24 50.42,98.18"/>
    </edge>
    <edge id=":gneJ16_0" function="internal">
        <lane id=":gneJ16_0_0" index="0" speed="13.89" length="2.59" shape="76.78,93.85 76.23,94.38 75.81,94.70 75.32,94.91 74.58,95.12"/>
    </edge>
    <edge id=":gneJ16_1" function="internal">
        <lane id=":gneJ16_1_0" index="0" speed="13.89" length="0.85" shape="73.73,91.93 73.97,91.86 74.13,91.79 74.27,91.69 74.45,91.52"/>
    </edge>
    <edge id=":gneJ17_0" function="internal">
        <lane id=":gneJ17_0_0" index="0" speed="13.89" length="2.59" shape="6.15,76.78 5.62,76.23 5.30,75.80 5.09,75.32 4.88,74.58"/>
    </edge>
    <edge id=":gneJ17_1" function="internal">
        <lane id=":gneJ17_1_0" index="0" speed="13.89" length="0.84" shape="8.07,73.73 8.14,73.97 8.20,74.13 8.31,74.27 8.48,74.45"/>
    </edge>
    <edge id=":gneJ19_0" function="internal">
        <lane id=":gneJ19_0_0" index="0" speed="13.89" length="1.29" shape="-1.49,50.84 -1.58,50.47 -1.63,50.22 -1.65,49.96 -1.65,49.57"/>
    </edge>
    <edge id=":gneJ19_1" function="internal">
        <lane id=":gneJ19_1_0" index="0" speed="13.89" length="0.42" shape="1.65,49.57 1.65,49.70 1.65,49.78 1.67,49.87 1.70,49.99"/>
    </edge>
    <edge id=":gneJ2_0" function="internal">
        <lane id=":gneJ2_0_0" index="0" speed="13.89" length="5.00" shape="-1.65,4.75 -1.84,3.39 -2.43,2.43 -3.39,1.84 -4.75,1.65"/>
    </edge>
    <edge id=":gneJ2_1" function="internal">
        <lane id=":gneJ2_1_0" index="0" speed="13.89" length="9.50" shape="-1.65,4.75 -1.65,-4.75"/>
    </edge>
    <edge id=":gneJ2_2" function="internal">
        <lane id=":gneJ2_2_0" index="0" speed="13.89" length="10.32" shape="-1.65,4.75 -1.25,1.95 -0.05,-0.05 1.95,-1.25 4.75,-1.65"/>
    </edge>
    <edge id=":gneJ2_3" function="internal">
        <lane id=":gneJ2_3_0" index="0" speed="13.89" length="5.00" shape="4.75,1.65 3.39,1.84 2.42,2.43 1.84,3.39 1.65,4.75"/>
    </edge>
    <edge id=":gneJ2_4" function="internal">
        <lane id=":gneJ2_4_0" index="0" speed="13.89" length="9.50" shape="4.75,1.65 -4.75,1.65"/>
    </edge>
    <edge id=":gneJ2_5" function="internal">
        <lane id=":gneJ2_5_0" index="0" speed="13.89" length="5.28" shape="4.75,1.65 1.95,1.25 -0.05,0.05 -0.11,-0.05"/>
    </edge>
    <edge id=":gneJ2_12" function="internal">
        <lane id=":gneJ2_12_0" index="0" speed="13.89" length="5.04" shape="-0.11,-0.05 -1.25,-1.95 -1.65,-4.75"/>
    </edge>
    <edge id=":gneJ2_6" function="internal">
        <lane id=":gneJ2_6_0" index="0" speed="13.89" length="5.00" shape="1.65,-4.75 1.84,-3.39 2.42,-2.43 3.39,-1.84 4.75,-1.65"/>
    </edge>
    <edge id=":gneJ2_7" function="internal">
        <lane id=":gneJ2_7_0" index="0" speed="13.89" length="9.50" shape="1.65,-4.75 1.65,4.75"/>
    </edge>
    <edge id=":gneJ2_8" function="internal">
        <lane id=":gneJ2_8_0" index="0" speed="13.89" length="10.32" shape="1.65,-4.75 1.25,-1.95 0.05,0.05 -1.95,1.25 -4.75,1.65"/>
    </edge>
    <edge id=":gneJ2_9" function="internal">
        <lane id=":gneJ2_9_0" index="0" speed="13.89" length="5.00" shape="-4.75,-1.65 -3.39,-1.84 -2.43,-2.43 -1.84,-3.39 -1.65,-4.75"/>
    </edge>
    <edge id=":gneJ2_10" function="internal">
        <lane id=":gneJ2_10_0" index="0" speed="13.89" length="9.50" shape="-4.75,-1.65 4.75,-1.65"/>
    </edge>
    <edge id=":gneJ2_11" function="internal">
        <lane id=":gneJ2_11_0" index="0" speed="13.89" length="5.28" shape="-4.75,-1.65 -1.95,-1.25 0.05,-0.05 0.11,0.05"/>
    </edge>
    <edge id=":gneJ2_13" function="internal">
        <lane id=":gneJ2_13_0" index="0" speed="13.89" length="5.04" shape="0.11,0.05 1.25,1.95 1.65,4.75"/>
    </edge>
    <edge id=":gneJ20_0" function="internal">
        <lane id=":gneJ20_0_0" index="0" speed="13.89" length="0.42" shape="-1.65,-49.57 -1.65,-49.70 -1.66,-49.78 -1.67,-49.87 -1.70,-49.99"/>
    </edge>
    <edge id=":gneJ20_1" function="internal">
        <lane id=":gneJ20_1_0" index="0" speed="13.89" length="1.29" shape="1.48,-50.84 1.58,-50.47 1.63,-50.21 1.65,-49.95 1.65,-49.57"/>
    </edge>
    <edge id=":gneJ23_0" function="internal">
        <lane id=":gneJ23_0_0" index="0" speed="13.89" length="0.82" shape="-8.08,-73.76 -8.14,-74.00 -8.21,-74.15 -8.31,-74.29 -8.47,-74.46"/>
    </edge>
    <edge id=":gneJ23_1" function="internal">
        <lane id=":gneJ23_1_0" index="0" speed="13.89" length="2.51" shape="-6.10,-76.76 -5.60,-76.22 -5.29,-75.80 -5.09,-75.33 -4.89,-74.62"/>
    </edge>
    <edge id=":gneJ24_0" function="internal">
        <lane id=":gneJ24_0_0" index="0" speed="13.89" length="0.81" shape="-49.58,-98.20 -49.81,-98.26 -49.98,-98.27 -50.14,-98.25 -50.37,-98.19"/>
    </edge>
    <edge id=":gneJ24_1" function="internal">
        <lane id=":gneJ24_1_0" index="0" speed="13.89" length="2.48" shape="-51.23,-101.38 -50.52,-101.56 -50.01,-101.62 -49.51,-101.57 -48.80,-101.41"/>
    </edge>
    <edge id=":gneJ25_0" function="internal">
        <lane id=":gneJ25_0_0" index="0" speed="13.89" length="0.85" shape="-91.52,-74.45 -91.69,-74.27 -91.79,-74.13 -91.86,-73.97 -91.93,-73.73"/>
    </edge>
    <edge id=":gneJ25_1" function="internal">
        <lane id=":gneJ25_1_0" index="0" speed="13.89" length="2.59" shape="-95.12,-74.59 -94.91,-75.32 -94.70,-75.81 -94.38,-76.24 -93.85,-76.78"/>
    </edge>
    <edge id=":gneJ26_0" function="internal">
        <lane id=":gneJ26_0_0" index="0" speed="13.89" length="2.48" shape="-101.41,-48.80 -101.57,-49.52 -101.62,-50.02 -101.56,-50.53 -101.38,-51.24"/>
    </edge>
    <edge id=":gneJ26_1" function="internal">
        <lane id=":gneJ26_1_0" index="0" speed="13.89" length="0.81" shape="-98.19,-50.38 -98.25,-50.15 -98.27,-49.99 -98.26,-49.82 -98.20,-49.59"/>
    </edge>
    <edge id=":gneJ27_0" function="internal">
        <lane id=":gneJ27_0_0" index="0" speed="13.89" length="2.51" shape="-74.62,-4.89 -75.33,-5.09 -75.80,-5.29 -76.22,-5.60 -76.76,-6.10"/>
    </edge>
    <edge id=":gneJ27_1" function="internal">
        <lane id=":gneJ27_1_0" index="0" speed="13.89" length="0.82" shape="-74.46,-8.47 -74.28,-8.31 -74.15,-8.21 -73.99,-8.14 -73.76,-8.08"/>
    </edge>
    <edge id=":gneJ29_0" function="internal">
        <lane id=":gneJ29_0_0" index="0" speed="13.89" length="1.29" shape="-49.57,1.65 -49.95,1.65 -50.21,1.63 -50.47,1.58 -50.84,1.48"/>
    </edge>
    <edge id=":gneJ29_1" function="internal">
        <lane id=":gneJ29_1_0" index="0" speed="13.89" length="0.42" shape="-49.99,-1.70 -49.87,-1.67 -49.78,-1.66 -49.70,-1.65 -49.57,-1.65"/>
    </edge>
    <edge id=":gneJ3_0" function="internal">
        <lane id=":gneJ3_0_0" index="0" speed="13.89" length="0.85" shape="91.93,26.27 91.86,26.03 91.79,25.87 91.69,25.73 91.52,25.55"/>
    </edge>
    <edge id=":gneJ3_1" function="internal">
        <lane id=":gneJ3_1_0" index="0" speed="13.89" length="2.59" shape="93.85,23.22 94.38,23.77 94.70,24.19 94.91,24.68 95.12,25.41"/>
    </edge>
    <edge id=":gneJ4_0" function="internal">
        <lane id=":gneJ4_0_0" index="0" speed="13.89" length="2.59" shape="95.12,74.59 94.91,75.32 94.70,75.81 94.38,76.23 93.85,76.78"/>
    </edge>
    <edge id=":gneJ4_1" function="internal">
        <lane id=":gneJ4_1_0" index="0" speed="13.89" length="0.85" shape="91.52,74.45 91.69,74.27 91.79,74.13 91.86,73.97 91.93,73.73"/>
    </edge>
    <edge id=":gneJ5_0" function="internal">
        <lane id=":gneJ5_0_0" index="0" speed="13.89" length="2.59" shape="25.41,95.12 24.68,94.91 24.19,94.70 23.77,94.38 23.22,93.85"/>
    </edge>
    <edge id=":gneJ5_1" function="internal">
        <lane id=":gneJ5_1_0" index="0" speed="13.89" length="0.85" shape="25.55,91.52 25.73,91.69 25.87,91.79 26.03,91.86 26.27,91.93"/>
    </edge>
    <edge id=":gneJ6_0" function="internal">
        <lane id=":gneJ6_0_0" index="0" speed="13.89" length="0.91" shape="-25.53,-92.08 -25.72,-92.27 -25.87,-92.38 -26.04,-92.45 -26.30,-92.52"/>
    </edge>
    <edge id=":gneJ6_1" function="internal">
        <lane id=":gneJ6_1_0" index="0" speed="13.89" length="2.78" shape="-25.52,-95.73 -24.73,-95.52 -24.20,-95.29 -23.74,-94.95 -23.16,-94.37"/>
    </edge>
    <edge id=":gneJ7_0" function="internal">
        <lane id=":gneJ7_0_0" index="0" speed="13.89" length="0.85" shape="-73.73,-91.93 -73.97,-91.86 -74.13,-91.79 -74.27,-91.69 -74.45,-91.52"/>
    </edge>
    <edge id=":gneJ7_1" function="internal">
        <lane id=":gneJ7_1_0" index="0" speed="13.89" length="2.59" shape="-76.78,-93.85 -76.23,-94.38 -75.81,-94.70 -75.32,-94.91 -74.59,-95.12"/>
    </edge>
    <edge id=":gneJ8_0" function="internal">
        <lane id=":gneJ8_0_0" index="0" speed="13.89" length="2.78" shape="-94.37,-23.16 -94.95,-23.74 -95.29,-24.20 -95.52,-24.73 -95.73,-25.52"/>
    </edge>
    <edge id=":gneJ8_1" function="internal">
        <lane id=":gneJ8_1_0" index="0" speed="13.89" length="0.91" shape="-92.52,-26.30 -92.45,-26.04 -92.38,-25.87 -92.27,-25.72 -92.08,-25.53"/>
    </edge>

    <edge id="-L1" from="gneJ19" to="gneJ2" priority="1" shape="-0.00,50.00 0.00,0.00">
        <lane id="-L1_0" index="0" speed="13.89" length="44.82" shape="-1.65,49.57 -1.65,4.75"/>
    </edge>
    <edge id="-L10" from="gneJ11" to="gneJ14" priority="1" shape="50.00,0.00 75.00,6.70">
        <lane id="-L10_0" index="0" speed="13.89" length="24.58" shape="50.84,-1.48 74.59,4.88"/>
    </edge>
    <edge id="-L11" from="gneJ2" to="gneJ11" priority="1" shape="0.00,0.00 50.00,0.00">
        <lane id="-L11_0" index="0" speed="13.89" length="44.82" shape="4.75,-1.65 49.57,-1.65"/>
    </edge>
    <edge id="-L12" from="gneJ29" to="gneJ2" priority="1" shape="-50.00,-0.00 0.00,0.00">
        <lane id="-L12_0" index="0" speed="13.89" length="44.82" shape="-49.57,-1.65 -4.75,-1.65"/>
    </edge>
    <edge id="-L13" from="gneJ27" to="gneJ29" priority="1" shape="-75.00,-6.70 -50.00,-0.00">
        <lane id="-L13_0" index="0" speed="13.89" length="24.61" shape="-73.76,-8.08 -49.99,-1.70"/>
    </edge>
    <edge id="-L14" from="gneJ8" to="gneJ27" priority="1" shape="-93.90,-25.00 -75.00,-6.70">
        <lane id="-L14_0" index="0" speed="13.89" length="24.52" shape="-92.08,-25.53 -74.46,-8.47"/>
    </edge>
    <edge id="-L15" from="gneJ26" to="gneJ8" priority="1" shape="-100.00,-50.00 -93.90,-25.00">
        <lane id="-L15_0" index="0" speed="13.89" length="23.97" shape="-98.20,-49.59 -92.52,-26.30"/>
    </edge>
    <edge id="-L16" from="gneJ25" to="gneJ26" priority="1" shape="-93.30,-75.00 -100.00,-50.00">
        <lane id="-L16_0" index="0" speed="13.89" length="24.18" shape="-91.93,-73.73 -98.19,-50.38"/>
    </edge>
    <edge id="-L17" from="gneJ7" to="gneJ25" priority="1" shape="-75.00,-93.30 -93.30,-75.00">
        <lane id="-L17_0" index="0" speed="13.89" length="24.14" shape="-74.45,-91.52 -91.52,-74.45"/>
    </edge>
    <edge id="-L18" from="gneJ24" to="gneJ7" priority="1" shape="-50.00,-100.00 -75.00,-93.30">
        <lane id="-L18_0" index="0" speed="13.89" length="24.18" shape="-50.37,-98.19 -73.73,-91.93"/>
    </edge>
    <edge id="-L19" from="gneJ6" to="gneJ24" priority="1" shape="-25.00,-93.90 -50.00,-100.00">
        <lane id="-L19_0" index="0" speed="13.89" length="23.96" shape="-26.30,-92.52 -49.58,-98.20"/>
    </edge>
    <edge id="-L2" from="gneJ17" to="gneJ19" priority="1" shape="6.70,75.00 -0.00,50.00">
        <lane id="-L2_0" index="0" speed="13.89" length="24.58" shape="4.88,74.58 -1.49,50.84"/>
    </edge>
    <edge id="-L20" from="gneJ23" to="gneJ6" priority="1" shape="-6.70,-75.00 -25.00,-93.90">
        <lane id="-L20_0" index="0" speed="13.89" length="24.52" shape="-8.47,-74.46 -25.53,-92.08"/>
    </edge>
    <edge id="-L21" from="gneJ20" to="gneJ23" priority="1" shape="0.00,-50.00 -6.70,-75.00">
        <lane id="-L21_0" index="0" speed="13.89" length="24.62" shape="-1.70,-49.99 -8.08,-73.76"/>
    </edge>
    <edge id="-L22" from="gneJ2" to="gneJ20" priority="1" shape="0.00,0.00 0.00,-50.00">
        <lane id="-L22_0" index="0" speed="13.89" length="44.82" shape="-1.65,-4.75 -1.65,-49.57"/>
    </edge>
    <edge id="-L3" from="gneJ5" to="gneJ17" priority="1" shape="25.00,93.30 6.70,75.00">
        <lane id="-L3_0" index="0" speed="13.89" length="24.14" shape="23.22,93.85 6.15,76.78"/>
    </edge>
    <edge id="-L4" from="gneJ15" to="gneJ5" priority="1" shape="50.00,100.00 25.00,93.30">
        <lane id="-L4_0" index="0" speed="13.89" length="24.14" shape="48.73,101.37 25.41,95.12"/>
    </edge>
    <edge id="-L5" from="gneJ16" to="gneJ15" priority="1" shape="75.00,93.30 50.00,100.00">
        <lane id="-L5_0" index="0" speed="13.89" length="24.14" shape="74.58,95.12 51.27,101.37"/>
    </edge>
    <edge id="-L6" from="gneJ4" to="gneJ16" priority="1" shape="93.30,75.00 75.00,93.30">
        <lane id="-L6_0" index="0" speed="13.89" length="24.14" shape="93.85,76.78 76.78,93.85"/>
    </edge>
    <edge id="-L7" from="gneJ12" to="gneJ4" priority="1" shape="100.00,50.00 93.30,75.00">
        <lane id="-L7_0" index="0" speed="13.89" length="24.14" shape="101.37,51.27 95.12,74.59"/>
    </edge>
    <edge id="-L8" from="gneJ3" to="gneJ12" priority="1" shape="93.30,25.00 100.00,50.00">
        <lane id="-L8_0" index="0" speed="13.89" length="24.14" shape="95.12,25.41 101.37,48.73"/>
    </edge>
    <edge id="-L9" from="gneJ14" to="gneJ3" priority="1" shape="75.00,6.70 93.30,25.00">
        <lane id="-L9_0" index="0" speed="13.89" length="24.14" shape="76.78,6.15 93.85,23.22"/>
    </edge>
    <edge id="L1" from="gneJ2" to="gneJ19" priority="1" shape="0.00,0.00 -0.00,50.00">
        <lane id="L1_0" index="0" speed="13.89" length="44.82" shape="1.65,4.75 1.65,49.57"/>
    </edge>
    <edge id="L10" from="gneJ14" to="gneJ11" priority="1" shape="75.00,6.70 50.00,0.00">
        <lane id="L10_0" index="0" speed="13.89" length="24.58" shape="73.73,8.07 49.99,1.70"/>
    </edge>
    <edge id="L11" from="gneJ11" to="gneJ2" priority="1" shape="50.00,0.00 0.00,0.00">
        <lane id="L11_0" index="0" speed="13.89" length="44.82" shape="49.57,1.65 4.75,1.65"/>
    </edge>
    <edge id="L12" from="gneJ2" to="gneJ29" priority="1" shape="0.00,0.00 -50.00,-0.00">
        <lane id="L12_0" index="0" speed="13.89" length="44.82" shape="-4.75,1.65 -49.57,1.65"/>
    </edge>
    <edge id="L13" from="gneJ29" to="gneJ27" priority="1" shape="-50.00,-0.00 -75.00,-6.70">
        <lane id="L13_0" index="0" speed="13.89" length="24.61" shape="-50.84,1.48 -74.62,-4.89"/>
    </edge>
    <edge id="L14" from="gneJ27" to="gneJ8" priority="1" shape="-75.00,-6.70 -93.90,-25.00">
        <lane id="L14_0" index="0" speed="13.89" length="24.52" shape="-76.76,-6.10 -94.37,-23.16"/>
    </edge>
    <edge id="L15" from="gneJ8" to="gneJ26" priority="1" shape="-93.90,-25.00 -100.00,-50.00">
        <lane id="L15_0" index="0" speed="13.89" length="23.97" shape="-95.73,-25.52 -101.41,-48.80"/>
    </edge>
    <edge id="L16" from="gneJ26" to="gneJ25" priority="1" shape="-100.00,-50.00 -93.30,-75.00">
        <lane id="L16_0" index="0" speed="13.89" length="24.18" shape="-101.38,-51.24 -95.12,-74.59"/>
    </edge>
    <edge id="L17" from="gneJ25" to="gneJ7" priority="1" shape="-93.30,-75.00 -75.00,-93.30">
        <lane id="L17_0" index="0" speed="13.89" length="24.14" shape="-93.85,-76.78 -76.78,-93.85"/>
    </edge>
    <edge id="L18" from="gneJ7" to="gneJ24" priority="1" shape="-75.00,-93.30 -50.00,-100.00">
        <lane id="L18_0" index="0" speed="13.89" length="24.18" shape="-74.59,-95.12 -51.23,-101.38"/>
    </edge>
    <edge id="L19" from="gneJ24" to="gneJ6" priority="1" shape="-50.00,-100.00 -25.00,-93.90">
        <lane id="L19_0" index="0" speed="13.89" length="23.96" shape="-48.80,-101.41 -25.52,-95.73"/>
    </edge>
    <edge id="L2" from="gneJ19" to="gneJ17" priority="1" shape="-0.00,50.00 6.70,75.00">
        <lane id="L2_0" index="0" speed="13.89" length="24.58" shape="1.70,49.99 8.07,73.73"/>
    </edge>
    <edge id="L20" from="gneJ6" to="gneJ23" priority="1" shape="-25.00,-93.90 -6.70,-75.00">
        <lane id="L20_0" index="0" speed="13.89" length="24.52" shape="-23.16,-94.37 -6.10,-76.76"/>
    </edge>
    <edge id="L21" from="gneJ23" to="gneJ20" priority="1" shape="-6.70,-75.00 0.00,-50.00">
        <lane id="L21_0" index="0" speed="13.89" length="24.62" shape="-4.89,-74.62 1.48,-50.84"/>
    </edge>
    <edge id="L22" from="gneJ20" to="gneJ2" priority="1" shape="0.00,-50.00 0.00,0.00">
        <lane id="L22_0" index="0" speed="13.89" length="44.82" shape="1.65,-49.57 1.65,-4.75"/>
    </edge>
    <edge id="L3" from="gneJ17" to="gneJ5" priority="1" shape="6.70,75.00 25.00,93.30">
        <lane id="L3_0" index="0" speed="13.89" length="24.14" shape="8.48,74.45 25.55,91.52"/>
    </edge>
    <edge id="L4" from="gneJ5" to="gneJ15" priority="1" shape="25.00,93.30 50.00,100.00">
        <lane id="L4_0" index="0" speed="13.89" length="24.14" shape="26.27,91.93 49.59,98.18"/>
    </edge>
    <edge id="L5" from="gneJ15" to="gneJ16" priority="1" shape="50.00,100.00 75.00,93.30">
        <lane id="L5_0" index="0" speed="13.89" length="24.14" shape="50.42,98.18 73.73,91.93"/>
    </edge>
    <edge id="L6" from="gneJ16" to="gneJ4" priority="1" shape="75.00,93.30 93.30,75.00">
        <lane id="L6_0" index="0" speed="13.89" length="24.14" shape="74.45,91.52 91.52,74.45"/>
    </edge>
    <edge id="L7" from="gneJ4" to="gneJ12" priority="1" shape="93.30,75.00 100.00,50.00">
        <lane id="L7_0" index="0" speed="13.89" length="24.14" shape="91.93,73.73 98.18,50.41"/>
    </edge>
    <edge id="L8" from="gneJ12" to="gneJ3" priority="1" shape="100.00,50.00 93.30,25.00">
        <lane id="L8_0" index="0" speed="13.89" length="24.14" shape="98.18,49.59 91.93,26.27"/>
    </edge>
    <edge id="L9" from="gneJ3" to="gneJ14" priority="1" shape="93.30,25.00 75.00,6.70">
        <lane id="L9_0" index="0" speed="13.89" length="24.14" shape="91.52,25.55 74.45,8.48"/>
    </edge>

    <junction id="gneJ11" type="priority" x="50.00" y="0.00" incLanes="L10_0 -L11_0" intLanes=":gneJ11_0_0 :gneJ11_1_0" shape="49.57,3.25 51.25,-3.03 49.57,-3.25">
        <request index="0" response="00" foes="00" cont="0"/>
        <request index="1" response="00" foes="00" cont="0"/>
    </junction>
    <junction id="gneJ12" type="priority" x="100.00" y="50.00" incLanes="-L8_0 L7_0" intLanes=":gneJ12_0_0 :gneJ12_1_0" shape="102.91,48.32 96.64,50.00 102.91,51.68">
        <request index="0" response="00" foes="00" cont="0"/>
        <request index="1" response="00" foes="00" cont="0"/>
    </junction>
    <junction id="gneJ14" type="priority" x="75.00" y="6.70" incLanes="L9_0 -L10_0" intLanes=":gneJ14_0_0 :gneJ14_1_0" shape="73.32,9.61 77.91,5.02 75.00,3.34">
        <request index="0" response="00" foes="00" cont="0"/>
        <request index="1" response="00" foes="00" cont="0"/>
    </junction>
    <junction id="gneJ15" type="priority" x="50.00" y="100.00" incLanes="-L5_0 L4_0" intLanes=":gneJ15_0_0 :gneJ15_1_0" shape="51.68,102.91 50.00,96.63 48.32,102.91">
        <request index="0" response="00" foes="00" cont="0"/>
        <request index="1" response="00" foes="00" cont="0"/>
    </junction>
    <junction id="gneJ16" type="priority" x="75.00" y="93.30" incLanes="-L6_0 L5_0" intLanes=":gneJ16_0_0 :gneJ16_1_0" shape="77.91,94.98 73.32,90.39 75.00,96.66">
        <request index="0" response="00" foes="00" cont="0"/>
        <request index="1" response="00" foes="00" cont="0"/>
    </junction>
    <junction id="gneJ17" type="priority" x="6.70" y="75.00" incLanes="-L3_0 L2_0" intLanes=":gneJ17_0_0 :gneJ17_1_0" shape="5.02,77.91 9.61,73.31 3.33,75.00">
        <request index="0" response="00" foes="00" cont="0"/>
        <request index="1" response="00" foes="00" cont="0"/>
    </junction>
    <junction id="gneJ19" type="priority" x="0.00" y="50.00" incLanes="-L2_0 L1_0" intLanes=":gneJ19_0_0 :gneJ19_1_0" shape="-3.03,51.26 3.25,49.57 -3.25,49.57">
        <request index="0" response="00" foes="00" cont="0"/>
        <request index="1" response="00" foes="00" cont="0"/>
    </junction>
    <junction id="gneJ2" type="priority" x="0.00" y="0.00" incLanes="-L1_0 L11_0 L22_0 -L12_0" intLanes=":gneJ2_0_0 :gneJ2_1_0 :gneJ2_2_0 :gneJ2_3_0 :gneJ2_4_0 :gneJ2_12_0 :gneJ2_6_0 :gneJ2_7_0 :gneJ2_8_0 :gneJ2_9_0 :gneJ2_10_0 :gneJ2_13_0" shape="-3.25,4.75 3.25,4.75 4.75,3.25 4.75,-3.25 3.25,-4.75 -3.25,-4.75 -4.75,-3.25 -4.75,3.25">
        <request index="0" response="000000010000" foes="000100010000" cont="0"/>
        <request index="1" response="111000110000" foes="111100110000" cont="0"/>
        <request index="2" response="110011110000" foes="110011110000" cont="0"/>
        <request index="3" response="000000000000" foes="100010000000" cont="0"/>
        <request index="4" response="000000000000" foes="100110000111" cont="0"/>
        <request index="5" response="011000000000" foes="011110000110" cont="1"/>
        <request index="6" response="010000000000" foes="010000000100" cont="0"/>
        <request index="7" response="110000111000" foes="110000111100" cont="0"/>
        <request index="8" response="110000110011" foes="110000110011" cont="0"/>
        <request index="9" response="000000000000" foes="000000100010" cont="0"/>
        <request index="10" response="000000000000" foes="000111100110" cont="0"/>
        <request index="11" response="000000011000" foes="000110011110" cont="1"/>
    </junction>
    <junction id="gneJ20" type="priority" x="0.00" y="-50.00" incLanes="-L22_0 L21_0" intLanes=":gneJ20_0_0 :gneJ20_1_0" shape="-3.25,-49.57 3.25,-49.57 3.03,-51.25">
        <request index="0" response="00" foes="00" cont="0"/>
        <request index="1" response="00" foes="00" cont="0"/>
    </junction>
    <junction id="gneJ23" type="priority" x="-6.70" y="-75.00" incLanes="-L21_0 L20_0" intLanes=":gneJ23_0_0 :gneJ23_1_0" shape="-9.62,-73.35 -3.34,-75.03 -4.95,-77.87">
        <request index="0" response="00" foes="00" cont="0"/>
        <request index="1" response="00" foes="00" cont="0"/>
    </junction>
    <junction id="gneJ24" type="priority" x="-50.00" y="-100.00" incLanes="-L19_0 L18_0" intLanes=":gneJ24_0_0 :gneJ24_1_0" shape="-49.96,-96.65 -48.42,-102.96 -51.64,-102.93">
        <request index="0" response="00" foes="00" cont="0"/>
        <request index="1" response="00" foes="00" cont="0"/>
    </junction>
    <junction id="gneJ25" type="priority" x="-93.30" y="-75.00" incLanes="-L17_0 L16_0" intLanes=":gneJ25_0_0 :gneJ25_1_0" shape="-90.39,-73.32 -94.98,-77.92 -96.66,-75.00">
        <request index="0" response="00" foes="00" cont="0"/>
        <request index="1" response="00" foes="00" cont="0"/>
    </junction>
    <junction id="gneJ26" type="priority" x="-100.00" y="-50.00" incLanes="L15_0 -L16_0" intLanes=":gneJ26_0_0 :gneJ26_1_0" shape="-102.96,-48.43 -96.65,-49.97 -102.93,-51.65">
        <request index="0" response="00" foes="00" cont="0"/>
        <request index="1" response="00" foes="00" cont="0"/>
    </junction>
    <junction id="gneJ27" type="priority" x="-75.00" y="-6.70" incLanes="L13_0 -L14_0" intLanes=":gneJ27_0_0 :gneJ27_1_0" shape="-75.03,-3.34 -73.35,-9.62 -77.87,-4.95">
        <request index="0" response="00" foes="00" cont="0"/>
        <request index="1" response="00" foes="00" cont="0"/>
    </junction>
    <junction id="gneJ29" type="priority" x="-50.00" y="0.00" incLanes="L12_0 -L13_0" intLanes=":gneJ29_0_0 :gneJ29_1_0" shape="-49.57,3.25 -49.57,-3.25 -51.25,3.03">
        <request index="0" response="00" foes="00" cont="0"/>
        <request index="1" response="00" foes="00" cont="0"/>
    </junction>
    <junction id="gneJ3" type="priority" x="93.30" y="25.00" incLanes="L8_0 -L9_0" intLanes=":gneJ3_0_0 :gneJ3_1_0" shape="90.39,26.68 96.66,25.00 94.98,22.09">
        <request index="0" response="00" foes="00" cont="0"/>
        <request index="1" response="00" foes="00" cont="0"/>
    </junction>
    <junction id="gneJ4" type="priority" x="93.30" y="75.00" incLanes="-L7_0 L6_0" intLanes=":gneJ4_0_0 :gneJ4_1_0" shape="96.66,75.00 90.39,73.32 94.98,77.91">
        <request index="0" response="00" foes="00" cont="0"/>
        <request index="1" response="00" foes="00" cont="0"/>
    </junction>
    <junction id="gneJ5" type="priority" x="25.00" y="93.30" incLanes="-L4_0 L3_0" intLanes=":gneJ5_0_0 :gneJ5_1_0" shape="25.00,96.66 26.68,90.39 22.09,94.98">
        <request index="0" response="00" foes="00" cont="0"/>
        <request index="1" response="00" foes="00" cont="0"/>
    </junction>
    <junction id="gneJ6" type="priority" x="-25.00" y="-93.90" incLanes="-L20_0 L19_0" intLanes=":gneJ6_0_0 :gneJ6_1_0" shape="-26.68,-90.97 -22.01,-95.49 -25.14,-97.28">
        <request index="0" response="00" foes="00" cont="0"/>
        <request index="1" response="00" foes="00" cont="0"/>
    </junction>
    <junction id="gneJ7" type="priority" x="-75.00" y="-93.30" incLanes="-L18_0 L17_0" intLanes=":gneJ7_0_0 :gneJ7_1_0" shape="-73.32,-90.39 -75.00,-96.66 -77.91,-94.98">
        <request index="0" response="00" foes="00" cont="0"/>
        <request index="1" response="00" foes="00" cont="0"/>
    </junction>
    <junction id="gneJ8" type="priority" x="-93.90" y="-25.00" incLanes="L14_0 -L15_0" intLanes=":gneJ8_0_0 :gneJ8_1_0" shape="-95.49,-22.01 -90.97,-26.68 -97.28,-25.14">
        <request index="0" response="00" foes="00" cont="0"/>
        <request index="1" response="00" foes="00" cont="0"/>
    </junction>

    <junction id=":gneJ2_12_0" type="internal" x="-0.11" y="-0.05" incLanes=":gneJ2_5_0 -L12_0" intLanes=":gneJ2_1_0 :gneJ2_2_0 :gneJ2_7_0 :gneJ2_8_0 :gneJ2_9_0 :gneJ2_10_0"/>
    <junction id=":gneJ2_13_0" type="internal" x="0.11" y="0.05" incLanes=":gneJ2_11_0 L11_0" intLanes=":gneJ2_1_0 :gneJ2_2_0 :gneJ2_3_0 :gneJ2_4_0 :gneJ2_7_0 :gneJ2_8_0"/>

    <connection from="-L1" to="L12" fromLane="0" toLane="0" via=":gneJ2_0_0" dir="r" state="m"/>
    <connection from="-L1" to="-L22" fromLane="0" toLane="0" via=":gneJ2_1_0" dir="s" state="m"/>
    <connection from="-L1" to="-L11" fromLane="0" toLane="0" via=":gneJ2_2_0" dir="l" state="m"/>
    <connection from="-L10" to="-L9" fromLane="0" toLane="0" via=":gneJ14_1_0" dir="s" state="M"/>
    <connection from="-L11" to="-L10" fromLane="0" toLane="0" via=":gneJ11_1_0" dir="s" state="M"/>
    <connection from="-L12" to="-L22" fromLane="0" toLane="0" via=":gneJ2_9_0" dir="r" state="M"/>
    <connection from="-L12" to="-L11" fromLane="0" toLane="0" via=":gneJ2_10_0" dir="s" state="M"/>
    <connection from="-L12" to="L1" fromLane="0" toLane="0" via=":gneJ2_11_0" dir="l" state="m"/>
    <connection from="-L13" to="-L12" fromLane="0" toLane="0" via=":gneJ29_1_0" dir="s" state="M"/>
    <connection from="-L14" to="-L13" fromLane="0" toLane="0" via=":gneJ27_1_0" dir="s" state="M"/>
    <connection from="-L15" to="-L14" fromLane="0" toLane="0" via=":gneJ8_1_0" dir="s" state="M"/>
    <connection from="-L16" to="-L15" fromLane="0" toLane="0" via=":gneJ26_1_0" dir="s" state="M"/>
    <connection from="-L17" to="-L16" fromLane="0" toLane="0" via=":gneJ25_0_0" dir="s" state="M"/>
    <connection from="-L18" to="-L17" fromLane="0" toLane="0" via=":gneJ7_0_0" dir="s" state="M"/>
    <connection from="-L19" to="-L18" fromLane="0" toLane="0" via=":gneJ24_0_0" dir="s" state="M"/>
    <connection from="-L2" to="-L1" fromLane="0" toLane="0" via=":gneJ19_0_0" dir="s" state="M"/>
    <connection from="-L20" to="-L19" fromLane="0" toLane="0" via=":gneJ6_0_0" dir="s" state="M"/>
    <connection from="-L21" to="-L20" fromLane="0" toLane="0" via=":gneJ23_0_0" dir="s" state="M"/>